** Output from COS2ABQ translator version 2014  
*HEADING
                                                                         
** PARTS
**
*PART,NAME=PART1
*NODE, NSET=NSET1
1,0.000000000,0.1000000015,-.1177587307E-16
2,0.000000000,0.000000000,-.1177587307E-16
3,0.000000000,0.000000000,0.1999999955E-01
4,0.000000000,0.1000000015,0.1999999955E-01
5,0.1000000015,0.000000000,-.1177587307E-16
6,0.1000000015,0.000000000,0.1999999955E-01
7,0.7000000030E-01,0.1499999966E-01,0.1999999955E-01
8,0.6855767965E-01,0.1851324923E-01,0.1999999955E-01
9,0.1999999955E-01,0.1499999966E-01,0.1999999955E-01
10,0.1855767891E-01,0.1851324923E-01,0.1999999955E-01
11,0.1999999955E-01,0.6499999762E-01,0.1999999955E-01
12,0.1855767891E-01,0.6851325184E-01,0.1999999955E-01
13,0.7000000030E-01,0.1499999966E-01,-.1177587307E-16
14,0.6855767965E-01,0.1851324923E-01,-.1177587307E-16
15,0.1999999955E-01,0.1499999966E-01,-.1177587307E-16
16,0.1855767891E-01,0.1851324923E-01,-.1177587307E-16
17,0.1999999955E-01,0.6499999762E-01,-.1177587307E-16
18,0.1855767891E-01,0.6851325184E-01,-.1177587307E-16
19,0.000000000,0.9375000000E-01,-.1177587307E-16
20,0.000000000,0.8749999851E-01,-.1177587307E-16
** ... 1139 like lines cut
*ELEMENT,TYPE=DC3D4,ELSET=PART1_EG1
1,667,668,669,670
2,667,668,670,671
3,670,672,671,673
4,76,370,672,674
5,370,670,672,674
6,369,667,380,670
7,369,667,670,674
8,168,675,676,677
9,130,168,676,677
10,130,676,168,678
11,676,679,677,680
12,676,677,681,682
13,441,679,677,681
14,589,683,684,685
15,100,677,130,682
16,99,130,100,677
17,145,686,166,687
18,133,687,166,688
19,145,686,687,689
20,678,687,682,690
** ... 4753 like lines cut
*SOLID SECTION,ELSET=PART1_EG1,MATERIAL=MAT1
*END PART
** ASSEMBLY
*ASSEMBLY, NAME=ASSEMBLY
*INSTANCE, NAME=PART1-1, PART=PART1
*END INSTANCE
*ELSET,ELSET=SF_ESET1,INTERNAL,INSTANCE=PART1-1 
16,80,177,371,476,522,530,604,648,673,692,916,1214,1275,1285,1305 
1410,1429,1473,1844,1851,1853,1922,2118,2147,2151,2165,2315,2317,2321,2325,2416 
2420,2657,2691,2792,2819,2891,2893,2896,2911,2943,2956,2985,3062,3114,3243,3256 
3259,3266,3269,3315,3328,3407,3412,3439,3442,3483,3498,3509,3517,3518,3563,3567 
3620,3632,3636,3661,3662,3666,3670,3679,3680,3712,3714,3719,3721,3790,3797,3817 
3910,3911,3940,3983,4008,4011,4016,4020,4024,4027,4059,4108,4177,4188,4211,4260 
4312,4319,4323,4359,4374,4447,4449,4454,4456,4505,4527,4528,4529,4547,4557,4562 
4568,4608,4611,4614,4630,4647,4648,4659,4664
*ELSET,ELSET=SF_ESET2,INTERNAL,INSTANCE=PART1-1 
4639
*ELSET,ELSET=SF_ESET3,INTERNAL,INSTANCE=PART1-1 
56,511,512,840,849,853,1224,1594,1598,1654,1737,1757,1874,1884,2211,2213 
2222,2224,2234,2241,2246,2328,2421,2492,2519,2536,2601,2629,2732,2742,2758,2816 
2843,2964,2967,2970,2977,2991,3044,3159,3162,3163,3167,3169,3291,3308,3369,3379 
3386,3393,3395,3540,3546,3555,3560,3653,3699,3707,3778,3873,3907,3908,3914,3917 
3924,3989,4035,4096,4146,4159,4167,4252,4344,4367,4401,4439,4486,4541,4558,4570 
4582,4584,4632,4633,4636,4710,4712,4760,4764
*ELSET,ELSET=SF_ESET4,INTERNAL,INSTANCE=PART1-1 
1976,2352,2500,2556,2772,4243,4253,4749
*ELSET,ELSET=SF_ESET5,INTERNAL,INSTANCE=PART1-1 
357,1826,2226,2242,3123,4628
*ELSET,ELSET=SF_ESET6,INTERNAL,INSTANCE=PART1-1 
58,85,92,232,392,551,638,641,647,650,671,677,678,704,830,914 
980,1013,1101,1232,1263,1294,1316,1322,1364,1388,1445,1457,1469,1489,1508,1519 
1525,1533,1557,1611,1616,1636,1637,1641,1703,1731,1736,1767,1778,1824,1855,1865 
1866,1872,1911,1914,1915,1923,1924,1932,1933,1957,1971,1975,1976,1977,2009,2012 
2043,2049,2051,2061,2075,2107,2125,2126,2138,2142,2148,2155,2156,2158,2160,2175 
2176,2190,2207,2231,2275,2277,2280,2281,2327,2335,2337,2342,2344,2429,2435,2466 
2482,2483,2490,2500,2504,2538,2544,2545,2551,2553,2556,2558,2561,2571,2603,2605 
2627,2654,2656,2672,2675,2746,2769,2772,2815,2821,2872,2878,2957,2987,2996,3004 
3006,3013,3028,3034,3039,3042,3045,3047,3052,3053,3079,3116,3117,3130,3137,3138 
3139,3144,3149,3152,3212,3284,3314,3316,3340,3341,3343,3382,3384,3408,3418,3451 
3478,3528,3531,3537,3545,3551,3634,3683,3692,3715,3729,3738,3739,3776,3780,3784 
3788,3799,3806,3807,3812,3813,3822,3828,3832,3833,3891,3892,3909,3934,3938,3957 
3959,3999,4032,4077,4083,4112,4140,4154,4181,4184,4194,4223,4224,4243,4253,4258 
4266,4271,4273,4281,4309,4327,4336,4346,4347,4365,4379,4395,4396,4417,4427,4452 
4468,4473,4475,4489,4492,4496,4497,4499,4506,4511,4514,4531,4556,4559,4561,4565 
4609,4610,4616,4628,4644,4651,4656,4671,4693,4701,4703,4713,4715,4716,4717,4723 
4724,4726,4729,4730,4745,4746,4748,4763
*ELSET,ELSET=SF_ESET7,INTERNAL,INSTANCE=PART1-1 
1085,1821,1918,2000,2359,2513,2521,2786,2856,2868,2879,2896,3245,3301,3307,3342 
3357,3385,3412,3439,3442,3459,3570,3632,3724,4027,4037,4073,4104,4372,4476,4491 
4529,4557,4611,4681
*ELSET,ELSET=SF_ESET8,INTERNAL,INSTANCE=PART1-1 
3350,4505
*ELSET,ELSET=SF_ESET9,INTERNAL,INSTANCE=PART1-1 
69,90,119,139,309,335,558,640,869,1132,1350,1446,1460,1550,1556,1592 
1624,1628,1647,1666,1698,1720,1741,1815,1821,1831,1841,1848,1859,1864,1867,1891 
1899,1918,1972,2040,2050,2088,2093,2115,2227,2305,2324,2362,2423,2427,2442,2448 
2458,2464,2467,2479,2495,2513,2521,2584,2591,2655,2673,2677,2713,2877,2934,2936 
2972,3097,3183,3245,3339,3342,3357,3358,3359,3366,3367,3372,3385,3409,3414,3456 
3489,3504,3553,3586,3629,3631,3659,3724,3732,3734,3755,3765,3773,3775,3786,3800 
3839,3860,3874,3883,3890,3893,3894,3899,3920,3942,3987,3992,4004,4037,4044,4047 
4065,4071,4073,4079,4104,4162,4172,4219,4225,4232,4265,4286,4290,4300,4301,4308 
4310,4320,4328,4340,4371,4372,4373,4378,4387,4438,4442,4466,4469,4472,4476,4491 
4508,4510,4513,4522,4535,4553,4575,4642,4676,4678,4683,4718,4754,4756,4766,4772 
*ELSET,ELSET=SF_ESET10,INTERNAL,INSTANCE=PART1-1 
2214,4016,4051,4451,4505
*ELSET,ELSET=SF_ESET11,INTERNAL,INSTANCE=PART1-1 
733,1587,3520,4506,4572,4702,4703
*ELSET,ELSET=SF_ESET12,INTERNAL,INSTANCE=PART1-1 
2359,2444,3328,3410,4013,4455
*ELSET,ELSET=SF_ESET13,INTERNAL,INSTANCE=PART1-1 
88,95,99,174,226,305,357,385,396,447,468,515,523,587,605,626 
631,733,748,881,891,894,941,994,1074,1175,1331,1352,1392,1417,1499,1515 
1559,1576,1612,1629,1633,1643,1652,1684,1700,1773,1791,1794,1802,1826,1845,1861 
1890,1900,1930,1935,1937,1942,1956,1973,2011,2062,2066,2081,2120,2166,2181,2184 
2189,2197,2223,2226,2238,2242,2256,2259,2272,2283,2291,2309,2326,2339,2346,2347 
2350,2353,2357,2360,2374,2394,2396,2432,2446,2542,2543,2562,2568,2588,2597,2604 
2621,2626,2643,2653,2660,2668,2683,2768,2770,2787,2802,2809,2811,2823,2825,2834 
2876,2990,2992,2995,3016,3017,3018,3026,3043,3069,3096,3105,3120,3121,3123,3133 
3140,3142,3172,3173,3207,3211,3235,3242,3247,3257,3332,3333,3362,3405,3406,3420 
3430,3434,3444,3462,3464,3470,3473,3476,3488,3495,3497,3499,3507,3511,3520,3522 
3524,3527,3533,3535,3536,3539,3547,3549,3564,3590,3596,3603,3607,3608,3611,3650 
3655,3672,3718,3731,3746,3804,3829,3841,3843,3844,3852,3862,3879,3885,3886,3898 
3985,3990,3994,4036,4046,4052,4062,4085,4087,4107,4115,4129,4130,4132,4145,4156 
4164,4169,4185,4226,4279,4283,4287,4288,4293,4294,4297,4305,4316,4325,4326,4376 
4389,4390,4399,4408,4412,4414,4416,4418,4419,4429,4434,4446,4457,4461,4465,4501 
4516,4520,4521,4532,4544,4548,4549,4564,4585,4587,4591,4593,4597,4605,4629,4652 
4653,4654,4666,4668,4728,4735,4736,4740,4742,4743,4749,4750,4771
*ELSET,ELSET=SF_ESET14,INTERNAL,INSTANCE=PART1-1 
1817,3328
*ELSET,ELSET=SF_ESET15,INTERNAL,INSTANCE=PART1-1 
139,371,604,1214,1550,1591,1655,1701,1815,2214,2321,2584,2673,2784,3061,3483 
3659,3691,3721,3734,3847,3850,3874,3902,3905,3910,4024,4219,4225,4291,4320,4328 
4415,4547,4676,4772
*ELSET,ELSET=SF_ESET16,INTERNAL,INSTANCE=PART1-1 
98,459,541,545,912,952,996,1082,1117,1150,1276,1372,1398,1432,1512,1514 
1659,1714,1768,1811,1951,2013,2182,2269,2276,2282,2285,2287,2289,2290,2572,2634 
2662,2708,2754,2767,2773,2776,2785,2794,2796,2798,2974,3012,3049,3068,3090,3104 
3108,3185,3192,3193,3196,3210,3213,3215,3458,3602,3637,3697,3701,3702,4089,4118 
4174,4190,4202,4234,4318,4362,4363,4368,4382,4384,4391,4431,4441,4537,4574,4655 
4692
*ELSET,ELSET=SF_ESET17,INTERNAL,INSTANCE=PART1-1 
688,3004,3934,4365,4511,4593,4701,4725
*ELSET,ELSET=SF_ESET18,INTERNAL,INSTANCE=PART1-1 
92,1213,1392,1629,2081,2166,2275,2768,3069,3214,3590,4169,4354,4602
*ELSET,ELSET=SF_ESET19,INTERNAL,INSTANCE=PART1-1 
229,231,237,299,300,394,439,705,742,784,878,895,924,1199,1329,1426 
1642,1646,1758,1793,1910,1939,2030,2095,2159,2188,2212,2314,2318,2348,2382,2395 
2400,2404,2451,2453,2484,2508,2664,2698,2804,2828,2873,2886,2979,2982,3003,3014 
3098,3229,3248,3250,3267,3279,3280,3304,3402,3417,3427,3513,3640,3641,3642,3647 
3676,3678,3733,3754,3877,3919,3963,4045,4081,4285,4303,4322,4339,4357,4358,4381 
4385,4404,4405,4407,4490,4606,4617,4624
*ELSET,ELSET=SF_ESET20,INTERNAL,INSTANCE=PART1-1 
1855,2283,2482,2800,2987,3957,4414,4492,4610
*ELSET,ELSET=SF_ESET21,INTERNAL,INSTANCE=PART1-1 
748,2809,3332,3985,4390,4625
*ELSET,ELSET=SF_ESET22,INTERNAL,INSTANCE=PART1-1 
444,539,718,738,838,917,954,977,983,1037,1085,1111,1143,1189,1192,1591 
1655,1701,1709,1730,1734,1739,2000,2139,2173,2202,2214,2215,2216,2230,2237,2252 
2260,2320,2359,2363,2370,2371,2375,2385,2444,2501,2525,2532,2564,2565,2567,2628 
2670,2733,2784,2786,2845,2855,2856,2859,2863,2868,2879,2927,2928,2929,2939,2942 
2968,3061,3128,3154,3168,3202,3263,3301,3306,3307,3310,3440,3459,3558,3570,3581 
3585,3690,3691,3698,3700,3711,3847,3850,3866,3902,3931,3944,3993,3996,3998,4050 
4069,4142,4149,4150,4180,4197,4198,4291,4364,4383,4415,4424,4426,4430,4504,4551 
4573,4586,4594,4595,4620,4621,4622,4639,4681,4687
*SURFACE,TYPE=ELEMENT,NAME=SURFACE1 
SF_ESET1,S1 
SF_ESET2,S2 
*SURFACE,TYPE=ELEMENT,NAME=SURFACE2 
SF_ESET3,S1 
SF_ESET4,S2 
SF_ESET5,S4 
*SURFACE,TYPE=ELEMENT,NAME=SURFACE3 
SF_ESET6,S1 
SF_ESET7,S2 
SF_ESET8,S4 
*SURFACE,TYPE=ELEMENT,NAME=SURFACE4 
SF_ESET9,S1 
SF_ESET10,S2 
SF_ESET11,S3 
SF_ESET12,S4 
*SURFACE,TYPE=ELEMENT,NAME=SURFACE5 
SF_ESET13,S1 
SF_ESET14,S2 
SF_ESET15,S4 
*SURFACE,TYPE=ELEMENT,NAME=SURFACE6 
SF_ESET16,S1 
SF_ESET17,S2 
SF_ESET18,S4 
*SURFACE,TYPE=ELEMENT,NAME=SURFACE7 
SF_ESET19,S1 
SF_ESET20,S2 
SF_ESET21,S4 
*SURFACE,TYPE=ELEMENT,NAME=SURFACE8 
SF_ESET22,S1 
*END ASSEMBLY
*MATERIAL,NAME=MAT1
*ELASTIC
0.210000E+12,0.280000E+00,
*PLASTIC
0.62042E+09,0.0000,0.0000
*EXPANSION
0.130000E-04,
*DENSITY
0.770000E+04,
*CONDUCTIVITY
0.500000E+02,
*SPECIFIC HEAT
0.460000E+03,
** PHYSICAL CONSTANTS
*PHYSICAL CONSTANTS, ABSOLUTE ZERO=0.0000000, STEFAN BOLTZMANN=0.56703001E-07
*STEP,solver=ITERATIVE
LOAD CASE NUMBER 1
*HEAT TRANSFER,STEADY STATE
1.0000,0.0000, , ,
*END STEP
